Circuit: * C:\Users\andre\Documents\GitHub\Past-Projects\Amplifier Circuit\Schematics\Simulasi Rangkaian.asc

WARNING: Node VOUT is floating.

WARNING: Less than two connections to node VOUT.  This node is used by C3.
Direct Newton iteration for .op point succeeded.

Date: Thu Apr 15 18:36:30 2021
Total elapsed time: 0.093 seconds.

tnom = 27
temp = 27
method = modified trap
totiter = 2088
traniter = 2082
tranpoints = 1042
accept = 1042
rejected = 0
matrix size = 18
fillins = 2
solver = Normal
Matrix Compiler1: 1.17 KB object code size  0.5/0.3/[0.2]
Matrix Compiler2: 1.49 KB object code size  0.3/0.5/[0.3]

